<?xml version="1.0" encoding="iso-8859-1"?>

<configuration xmlns:xsi="http://www.w3.org/2001/XMLSchema-instance" xsi:noNamespaceSchemaLocation="http://sumo.sf.net/xsd/sumoConfiguration.xsd">

    <input>
        <net-file value="LAedited.net.xml"/>
        <route-files value="LA2.rou.xml"/>
    </input>


    <report>
    	<verbose value="true"/>
    	<no-step-log value="true"/>
    </report>

    <time>
    	<seed value="999"/>
        <begin value="0"/>
        <end value="500"/>
        <step-length value="0.1"/>
    </time>
    
    <output>
        <tripinfo-output value="LATripInfo.xml"/>
    </output>
        
    <gui_only>
    	<gui-settings-file value="viewsettings.xml"/>
    </gui_only>

</configuration>
