<?xml version="1.0" encoding="UTF-8"?>
<!-- generated on 2018-05-09 00:09:29.716211 by $Id$
  options: -n LAedited.net.xml -e 500 -r LA2.rou.xml
-->
<routes xmlns:xsi="http://www.w3.org/2001/XMLSchema-instance" xsi:noNamespaceSchemaLocation="http://sumo.dlr.de/xsd/routes_file.xsd">
    <trip id="0" depart="0.00" from="-399241942#1" to="580285683#2"/>
    <trip id="1" depart="1.00" from="399241935" to="-399238816#0"/>
    <trip id="2" depart="2.00" from="399283657" to="-399247038#1"/>
    <trip id="3" depart="3.00" from="186076381#5" to="-45619517#2"/>
    <trip id="4" depart="4.00" from="456584005#1" to="-381243038#10"/>
    <trip id="5" depart="5.00" from="-399296456#0" to="161687300#4"/>
    <trip id="6" depart="6.00" from="-399243265#1" to="399270698#0"/>
    <trip id="7" depart="7.00" from="-399294721" to="-161716094#2"/>
    <trip id="8" depart="8.00" from="186070704#8" to="399296457#0"/>
    <trip id="9" depart="9.00" from="543624991#2" to="-399238817"/>
    <trip id="10" depart="10.00" from="25448307#0" to="381204958#1"/>
    <trip id="11" depart="11.00" from="-381204958#1" to="-405162744#0"/>
    <trip id="12" depart="12.00" from="148252671#0" to="518244671#2"/>
    <trip id="13" depart="13.00" from="206372069#2" to="-399270702#1"/>
    <trip id="14" depart="14.00" from="206372069#1" to="-399247038#0"/>
    <trip id="15" depart="15.00" from="-398735944" to="-381189078"/>
    <trip id="16" depart="16.00" from="13405586#1" to="-405162747#1"/>
    <trip id="17" depart="17.00" from="-13458280#1" to="-45536814#7"/>
    <trip id="18" depart="18.00" from="-45536227#0" to="185948942#1"/>
    <trip id="19" depart="19.00" from="382219815#0" to="-186070704#7"/>
    <trip id="20" depart="20.00" from="161688462#5" to="399294703"/>
    <trip id="21" depart="21.00" from="399241941" to="-161689787#1"/>
    <trip id="22" depart="22.00" from="-381189081#3" to="-25448307#1"/>
    <trip id="23" depart="23.00" from="-381196468#0" to="381246291#2"/>
    <trip id="24" depart="24.00" from="237022761#9" to="161890055#0"/>
    <trip id="25" depart="25.00" from="45536814#4" to="-45536227#0"/>
    <trip id="26" depart="26.00" from="-399307902" to="-399296446#1"/>
    <trip id="27" depart="27.00" from="46418598#0" to="-381243038#6"/>
    <trip id="28" depart="28.00" from="-381243040#0" to="161890065#5"/>
    <trip id="29" depart="29.00" from="-323126706#4" to="-13315907"/>
    <trip id="30" depart="30.00" from="543624991#0" to="-326489606#5"/>
    <trip id="31" depart="31.00" from="-405164502#1" to="398815739#0"/>
    <trip id="32" depart="32.00" from="121934301#6" to="404989093#2"/>
    <trip id="33" depart="33.00" from="-381189087#1" to="399270698#0"/>
    <trip id="34" depart="34.00" from="-382242304#1" to="399247039#1"/>
    <trip id="35" depart="35.00" from="-399306039" to="13419452#2"/>
    <trip id="36" depart="36.00" from="161687300#4" to="523623581#0"/>
    <trip id="37" depart="37.00" from="-437906536#6" to="399306051"/>
    <trip id="38" depart="38.00" from="-100930395#0" to="161689804#8"/>
    <trip id="39" depart="39.00" from="-399179069#1" to="399270702#1"/>
    <trip id="40" depart="40.00" from="381243038#2" to="437912349#5"/>
    <trip id="41" depart="41.00" from="326465873" to="399241924#6"/>
    <trip id="42" depart="42.00" from="437906536#2" to="13318047#4"/>
    <trip id="43" depart="43.00" from="524575358" to="-399296453"/>
    <trip id="44" depart="44.00" from="-161716060#1" to="13350354#2"/>
    <trip id="45" depart="45.00" from="381243039#1" to="399296452"/>
    <trip id="46" depart="46.00" from="-237022761#3" to="-45536814#7"/>
    <trip id="47" depart="47.00" from="-399294716#1" to="45536814#9"/>
    <trip id="48" depart="48.00" from="-47805886#1" to="148252676"/>
    <trip id="49" depart="49.00" from="-382242305#1" to="-186076400#1"/>
    <trip id="50" depart="50.00" from="-121934301#9" to="235177035#1"/>
    <trip id="51" depart="51.00" from="13318047#1" to="161688464#3"/>
    <trip id="52" depart="52.00" from="437799959#7" to="523623584#1"/>
    <trip id="53" depart="53.00" from="-47805886#7" to="399294709#5"/>
    <trip id="54" depart="54.00" from="-399307905" to="161890055#1"/>
    <trip id="55" depart="55.00" from="161713861#3" to="-382460879#0"/>
    <trip id="56" depart="56.00" from="-399294726" to="-399247036"/>
    <trip id="57" depart="57.00" from="24849409" to="-399306055"/>
    <trip id="58" depart="58.00" from="186076381#2" to="404995538#1"/>
    <trip id="59" depart="59.00" from="-399296439" to="-521802279#6"/>
    <trip id="60" depart="60.00" from="186070738#0" to="206376286#3"/>
    <trip id="61" depart="61.00" from="-524499803#0" to="399241938"/>
    <trip id="62" depart="62.00" from="-580285683#1" to="-399296456#0"/>
    <trip id="63" depart="63.00" from="47805886#5" to="186070725#7"/>
    <trip id="64" depart="64.00" from="-546567337" to="274749927"/>
    <trip id="65" depart="65.00" from="399238814#1" to="381239984"/>
    <trip id="66" depart="66.00" from="161688464#0" to="-161689824#2"/>
    <trip id="67" depart="67.00" from="186076381#5" to="399243269#0"/>
    <trip id="68" depart="68.00" from="323126706#4" to="437912349#4"/>
    <trip id="69" depart="69.00" from="100930395#7" to="47805886#3"/>
    <trip id="70" depart="70.00" from="438273062#1" to="-398815739#1"/>
    <trip id="71" depart="71.00" from="398815740#0" to="186070725#6"/>
    <trip id="72" depart="72.00" from="-381243043#2" to="-399294726"/>
    <trip id="73" depart="73.00" from="161890061#0" to="381190351#3"/>
    <trip id="74" depart="74.00" from="24849427" to="-382440774#1"/>
    <trip id="75" depart="75.00" from="13350354#1" to="486582813"/>
    <trip id="76" depart="76.00" from="-161890054#0" to="185948942#0"/>
    <trip id="77" depart="77.00" from="399241924#5" to="165520589"/>
    <trip id="78" depart="78.00" from="-399238816#2" to="-382492648#1"/>
    <trip id="79" depart="79.00" from="399241938" to="323126706#0"/>
    <trip id="80" depart="80.00" from="161890065#5" to="13303340#0"/>
    <trip id="81" depart="81.00" from="-186070704#9" to="167700743#3"/>
    <trip id="82" depart="82.00" from="382490911" to="-398735947#1"/>
    <trip id="83" depart="83.00" from="237022761#8" to="-186070705"/>
    <trip id="84" depart="84.00" from="382238491#3" to="404995539"/>
    <trip id="85" depart="85.00" from="161890062#8" to="13396661#1"/>
    <trip id="86" depart="86.00" from="13371738#1" to="381204958#0"/>
    <trip id="87" depart="87.00" from="-399247043#1" to="45619517#3"/>
    <trip id="88" depart="88.00" from="381451678" to="-578742470"/>
    <trip id="89" depart="89.00" from="-405164499#0" to="237022767#0"/>
    <trip id="90" depart="90.00" from="326465873" to="148385488"/>
    <trip id="91" depart="91.00" from="-437799959#6" to="-399241924#5"/>
    <trip id="92" depart="92.00" from="-381243038#10" to="45536814#9"/>
    <trip id="93" depart="93.00" from="382229043#0" to="381243043#4"/>
    <trip id="94" depart="94.00" from="161687301#3" to="161890055#1"/>
    <trip id="95" depart="95.00" from="399247030#1" to="186076381#5"/>
    <trip id="96" depart="96.00" from="-399307909#1" to="521802279#10"/>
    <trip id="97" depart="97.00" from="-399296457#1" to="186076386#0"/>
    <trip id="98" depart="98.00" from="-326489607#2" to="185948949#2"/>
    <trip id="99" depart="99.00" from="-399307902" to="161890281#1"/>
    <trip id="100" depart="100.00" from="185747926" to="237022761#3"/>
    <trip id="101" depart="101.00" from="-521802279#13" to="-294585476#1"/>
    <trip id="102" depart="102.00" from="-381189085#1" to="-438274649#0"/>
    <trip id="103" depart="103.00" from="-45536227#0" to="524575359#1"/>
    <trip id="104" depart="104.00" from="398815739#0" to="161688462#1"/>
    <trip id="105" depart="105.00" from="234665446#0" to="186070731#6"/>
    <trip id="106" depart="106.00" from="399247033#1" to="121934301#7"/>
    <trip id="107" depart="107.00" from="-13457494" to="-399307909#1"/>
    <trip id="108" depart="108.00" from="121934301#0" to="-399241928#0"/>
    <trip id="109" depart="109.00" from="186070735#9" to="-399241930#0"/>
    <trip id="110" depart="110.00" from="-381196468#1" to="405162731"/>
    <trip id="111" depart="111.00" from="-186076386#1" to="-381204958#0"/>
    <trip id="112" depart="112.00" from="398815739#1" to="-161716057#0"/>
    <trip id="113" depart="113.00" from="398735944" to="-521802279#5"/>
    <trip id="114" depart="114.00" from="161688173#1" to="437799959#4"/>
    <trip id="115" depart="115.00" from="-48331373#2" to="-237022761#8"/>
    <trip id="116" depart="116.00" from="-399294713" to="13318047#3"/>
    <trip id="117" depart="117.00" from="161716060#3" to="-161890055#4"/>
    <trip id="118" depart="118.00" from="-578742472" to="399294707#7"/>
    <trip id="119" depart="119.00" from="-521802279#6" to="13318047#6"/>
    <trip id="120" depart="120.00" from="381190352#1" to="399311989#3"/>
    <trip id="121" depart="121.00" from="-186070704#4" to="167413476#3"/>
    <trip id="122" depart="122.00" from="-161688172#1" to="399241934#3"/>
    <trip id="123" depart="123.00" from="45536814#6" to="185948949#2"/>
    <trip id="124" depart="124.00" from="382440774#1" to="161890062#6"/>
    <trip id="125" depart="125.00" from="45536227#5" to="399241929#1"/>
    <trip id="126" depart="126.00" from="186070725#8" to="-381193087#0"/>
    <trip id="127" depart="127.00" from="-13371738#1" to="-100930395#0"/>
    <trip id="128" depart="128.00" from="-405162749#1" to="-399307903#0"/>
    <trip id="129" depart="129.00" from="-399238814#0" to="521802279#1"/>
    <trip id="130" depart="130.00" from="186076403#5" to="399294707#3"/>
    <trip id="131" depart="131.00" from="186076403#1" to="161688464#4"/>
    <trip id="132" depart="132.00" from="-381265874#0" to="-47805886#8"/>
    <trip id="133" depart="133.00" from="-399294713" to="523623581#4"/>
    <trip id="134" depart="134.00" from="382492648#1" to="-13371738#2"/>
    <trip id="135" depart="135.00" from="523623581#4" to="-381243043#0"/>
    <trip id="136" depart="136.00" from="66668844" to="-580285683#2"/>
    <trip id="137" depart="137.00" from="381189081#4" to="234667498#0"/>
    <trip id="138" depart="138.00" from="-398815739#1" to="-121934301#2"/>
    <trip id="139" depart="139.00" from="161688767#0" to="206354180#3"/>
    <trip id="140" depart="140.00" from="405162751#1" to="579163503#1"/>
    <trip id="141" depart="141.00" from="-399307905" to="121934301#2"/>
    <trip id="142" depart="142.00" from="518244671#0" to="45536814#10"/>
    <trip id="143" depart="143.00" from="-399311981#0" to="-45536814#10"/>
    <trip id="144" depart="144.00" from="-399241939#0" to="381243039#1"/>
    <trip id="145" depart="145.00" from="399296454" to="-326489606#4"/>
    <trip id="146" depart="146.00" from="46418442#3" to="-523623584#1"/>
    <trip id="147" depart="147.00" from="161688173#1" to="-399241937#1"/>
    <trip id="148" depart="148.00" from="100930395#4" to="323126706#3"/>
    <trip id="149" depart="149.00" from="399307897" to="405162732"/>
    <trip id="150" depart="150.00" from="186070735#5" to="161716060#1"/>
    <trip id="151" depart="151.00" from="-399307909#0" to="66668869"/>
    <trip id="152" depart="152.00" from="-399238813#0" to="-381243043#2"/>
    <trip id="153" depart="153.00" from="-121934301#6" to="399311981#1"/>
    <trip id="154" depart="154.00" from="405163390#0" to="-382238485#1"/>
    <trip id="155" depart="155.00" from="-381246821#1" to="399296447#0"/>
    <trip id="156" depart="156.00" from="404989094#1" to="399241937#0"/>
    <trip id="157" depart="157.00" from="161890055#1" to="-405162889"/>
    <trip id="158" depart="158.00" from="161890065#4" to="161689787#1"/>
    <trip id="159" depart="159.00" from="399247043#1" to="100930395#1"/>
    <trip id="160" depart="160.00" from="-381243038#12" to="-161688172#1"/>
    <trip id="161" depart="161.00" from="399247033#1" to="-437799959#5"/>
    <trip id="162" depart="162.00" from="46418597#1" to="161890062#3"/>
    <trip id="163" depart="163.00" from="326489607#2" to="161716060#2"/>
    <trip id="164" depart="164.00" from="399238813#1" to="206372071#1"/>
    <trip id="165" depart="165.00" from="186070731#4" to="161890062#1"/>
    <trip id="166" depart="166.00" from="-399296438" to="206376283#3"/>
    <trip id="167" depart="167.00" from="405164831#1" to="-399241928#0"/>
    <trip id="168" depart="168.00" from="121934301#1" to="404989116#0"/>
    <trip id="169" depart="169.00" from="398815738#0" to="185948957#2"/>
    <trip id="170" depart="170.00" from="399247030#0" to="399283656"/>
    <trip id="171" depart="171.00" from="-521802280#1" to="-13458280#0"/>
    <trip id="172" depart="172.00" from="161890054#1" to="-521802279#7"/>
    <trip id="173" depart="173.00" from="-399247043#0" to="186070732#2"/>
    <trip id="174" depart="174.00" from="-186070704#4" to="323126706#2"/>
    <trip id="175" depart="175.00" from="-399307909#0" to="-185948958"/>
    <trip id="176" depart="176.00" from="-237022761#10" to="-185747931"/>
    <trip id="177" depart="177.00" from="524499802#1" to="24849439"/>
    <trip id="178" depart="178.00" from="399294715#0" to="-161689804#8"/>
    <trip id="179" depart="179.00" from="-438255393#1" to="165521629#0"/>
    <trip id="180" depart="180.00" from="-437906536#5" to="-399306062"/>
    <trip id="181" depart="181.00" from="-382460880#1" to="186070731#1"/>
    <trip id="182" depart="182.00" from="167700743#1" to="399238809"/>
    <trip id="183" depart="183.00" from="399307897" to="405162739#0"/>
    <trip id="184" depart="184.00" from="405164499#0" to="381190351#3"/>
    <trip id="185" depart="185.00" from="326465873" to="161688770#4"/>
    <trip id="186" depart="186.00" from="48331373#3" to="399238812"/>
    <trip id="187" depart="187.00" from="399294725" to="-381243038#6"/>
    <trip id="188" depart="188.00" from="580285684#3" to="-399294726"/>
    <trip id="189" depart="189.00" from="381243038#10" to="-161890054#1"/>
    <trip id="190" depart="190.00" from="-399306051" to="521802279#13"/>
    <trip id="191" depart="191.00" from="399241924#6" to="-399307898"/>
    <trip id="192" depart="192.00" from="-121934301#9" to="148385599"/>
    <trip id="193" depart="193.00" from="13318047#10" to="161716025#1"/>
    <trip id="194" depart="194.00" from="-399241924#0" to="381243040#0"/>
    <trip id="195" depart="195.00" from="-235177035#1" to="186070703#1"/>
    <trip id="196" depart="196.00" from="-399241929#1" to="13286058#0"/>
    <trip id="197" depart="197.00" from="185948997#0" to="437906536#5"/>
    <trip id="198" depart="198.00" from="382219101#3" to="399241934#4"/>
    <trip id="199" depart="199.00" from="-161716025#0" to="-486582813"/>
    <trip id="200" depart="200.00" from="-235177035#1" to="382238491#1"/>
    <trip id="201" depart="201.00" from="-186070704#2" to="-161890281#1"/>
    <trip id="202" depart="202.00" from="-399238817" to="-399241937#0"/>
    <trip id="203" depart="203.00" from="13350035#0" to="-438273062#0"/>
    <trip id="204" depart="204.00" from="-399296456#0" to="237022761#2"/>
    <trip id="205" depart="205.00" from="161716094#2" to="161890055#0"/>
    <trip id="206" depart="206.00" from="-323126706#3" to="399247037"/>
    <trip id="207" depart="207.00" from="399307909#0" to="543624991#2"/>
    <trip id="208" depart="208.00" from="-161689824#5" to="-382242305#2"/>
    <trip id="209" depart="209.00" from="399243760#1" to="13286058#3"/>
    <trip id="210" depart="210.00" from="399270702#1" to="-399294705#1"/>
    <trip id="211" depart="211.00" from="-47805886#3" to="13286058#3"/>
    <trip id="212" depart="212.00" from="48331373#3" to="401592772#1"/>
    <trip id="213" depart="213.00" from="399311988#1" to="-381243043#2"/>
    <trip id="214" depart="214.00" from="121934301#10" to="-13279089#0"/>
    <trip id="215" depart="215.00" from="381243039#0" to="-399296456#1"/>
    <trip id="216" depart="216.00" from="-405162741#0" to="206372071#3"/>
    <trip id="217" depart="217.00" from="-13308767" to="-161688173#0"/>
    <trip id="218" depart="218.00" from="399294709#4" to="-382460879#0"/>
    <trip id="219" depart="219.00" from="438274650#2" to="405162739#1"/>
    <trip id="220" depart="220.00" from="399307898" to="-121934301#0"/>
    <trip id="221" depart="221.00" from="404989112" to="381243038#0"/>
    <trip id="222" depart="222.00" from="186070731#3" to="438273062#0"/>
    <trip id="223" depart="223.00" from="398735943" to="-121934301#12"/>
    <trip id="224" depart="224.00" from="-165521629#1" to="-399296456#1"/>
    <trip id="225" depart="225.00" from="161689824#0" to="-161689804#0"/>
    <trip id="226" depart="226.00" from="185948949#1" to="66668843"/>
    <trip id="227" depart="227.00" from="237022761#9" to="323126706#3"/>
    <trip id="228" depart="228.00" from="161716060#2" to="-161890055#0"/>
    <trip id="229" depart="229.00" from="399241941" to="161688464#16"/>
    <trip id="230" depart="230.00" from="-523623584#1" to="401592771"/>
    <trip id="231" depart="231.00" from="382242607#1" to="-167700743#3"/>
    <trip id="232" depart="232.00" from="-380942935" to="186076381#8"/>
    <trip id="233" depart="233.00" from="161890061#1" to="24849365"/>
    <trip id="234" depart="234.00" from="123561823#0" to="-521802279#10"/>
    <trip id="235" depart="235.00" from="161688464#2" to="399311981#1"/>
    <trip id="236" depart="236.00" from="167413478#0" to="237022761#7"/>
    <trip id="237" depart="237.00" from="161688462#0" to="47805886#4"/>
    <trip id="238" depart="238.00" from="-161689804#5" to="-399249274"/>
    <trip id="239" depart="239.00" from="-398737424#0" to="-237022761#3"/>
    <trip id="240" depart="240.00" from="45619517#3" to="161687304#3"/>
    <trip id="241" depart="241.00" from="13308767" to="-399296456#1"/>
    <trip id="242" depart="242.00" from="437906536#0" to="580285683#1"/>
    <trip id="243" depart="243.00" from="399247030#0" to="524499802#0"/>
    <trip id="244" depart="244.00" from="-491696577" to="161688767#4"/>
    <trip id="245" depart="245.00" from="380944788" to="13350354#4"/>
    <trip id="246" depart="246.00" from="167700743#0" to="-486582813"/>
    <trip id="247" depart="247.00" from="-186070704#3" to="186070735#0"/>
    <trip id="248" depart="248.00" from="-382492647#0" to="399241934#1"/>
    <trip id="249" depart="249.00" from="-382490911" to="-161689824#1"/>
    <trip id="250" depart="250.00" from="-399241930#0" to="382229043#2"/>
    <trip id="251" depart="251.00" from="161890055#0" to="-161890055#2"/>
    <trip id="252" depart="252.00" from="438273062#1" to="405162744#0"/>
    <trip id="253" depart="253.00" from="-399296426#1" to="524575358"/>
    <trip id="254" depart="254.00" from="186070725#4" to="-399307909#1"/>
    <trip id="255" depart="255.00" from="161713861#1" to="-161689824#0"/>
    <trip id="256" depart="256.00" from="381246291#2" to="399241934#3"/>
    <trip id="257" depart="257.00" from="381204958#0" to="206376283#2"/>
    <trip id="258" depart="258.00" from="185948957#1" to="382241130#0"/>
    <trip id="259" depart="259.00" from="-437799959#3" to="165521626#0"/>
    <trip id="260" depart="260.00" from="13405586#0" to="13318047#12"/>
    <trip id="261" depart="261.00" from="-399241924#1" to="235177036"/>
    <trip id="262" depart="262.00" from="48331373#1" to="-168954643#2"/>
    <trip id="263" depart="263.00" from="-399238807" to="46418442#0"/>
    <trip id="264" depart="264.00" from="-399270702#1" to="399247041#1"/>
    <trip id="265" depart="265.00" from="-161890055#1" to="161689967#4"/>
    <trip id="266" depart="266.00" from="13371738#2" to="121934301#10"/>
    <trip id="267" depart="267.00" from="186070738#5" to="399247032#1"/>
    <trip id="268" depart="268.00" from="382219101#3" to="24849439"/>
    <trip id="269" depart="269.00" from="-323126706#0" to="186070725#8"/>
    <trip id="270" depart="270.00" from="-399241928#0" to="399311987#0"/>
    <trip id="271" depart="271.00" from="399294715#1" to="-381246292#1"/>
    <trip id="272" depart="272.00" from="167700743#3" to="-161716060#4"/>
    <trip id="273" depart="273.00" from="380944776" to="186076381#2"/>
    <trip id="274" depart="274.00" from="167413476#3" to="161890065#0"/>
    <trip id="275" depart="275.00" from="-399241924#0" to="206354180#0"/>
    <trip id="276" depart="276.00" from="399294707#7" to="161890062#7"/>
    <trip id="277" depart="277.00" from="161841079" to="-399294729#1"/>
    <trip id="278" depart="278.00" from="13318047#0" to="206372064#1"/>
    <trip id="279" depart="279.00" from="235177035#0" to="186076403#7"/>
    <trip id="280" depart="280.00" from="185948957#3" to="161689824#5"/>
    <trip id="281" depart="281.00" from="511703089" to="405164502#1"/>
    <trip id="282" depart="282.00" from="161716048#0" to="66668847"/>
    <trip id="283" depart="283.00" from="161716060#4" to="-398735945"/>
    <trip id="284" depart="284.00" from="-381246291#2" to="-45619517#0"/>
    <trip id="285" depart="285.00" from="13286058#0" to="381189081#3"/>
    <trip id="286" depart="286.00" from="186076403#4" to="-46418442#0"/>
    <trip id="287" depart="287.00" from="-399247036" to="-13350034"/>
    <trip id="288" depart="288.00" from="121934301#10" to="-121934301#12"/>
    <trip id="289" depart="289.00" from="381266660#2" to="381204957#1"/>
    <trip id="290" depart="290.00" from="-398735952#1" to="-381189083#1"/>
    <trip id="291" depart="291.00" from="148252671#0" to="-399241934#4"/>
    <trip id="292" depart="292.00" from="45536814#0" to="185948997#3"/>
    <trip id="293" depart="293.00" from="382238491#3" to="399294729#1"/>
    <trip id="294" depart="294.00" from="237022761#10" to="-399238816#1"/>
    <trip id="295" depart="295.00" from="-405162749#1" to="186076386#0"/>
    <trip id="296" depart="296.00" from="-399238817" to="-161689787#2"/>
    <trip id="297" depart="297.00" from="186070725#4" to="-45536814#0"/>
    <trip id="298" depart="298.00" from="-399307909#1" to="-404989116#1"/>
    <trip id="299" depart="299.00" from="-399296446#1" to="13350354#3"/>
    <trip id="300" depart="300.00" from="-399241935" to="381193087#1"/>
    <trip id="301" depart="301.00" from="13419452#0" to="399307898"/>
    <trip id="302" depart="302.00" from="145077580#1" to="399296458#0"/>
    <trip id="303" depart="303.00" from="399294707#7" to="-399294713"/>
    <trip id="304" depart="304.00" from="399296447#1" to="-161688173#0"/>
    <trip id="305" depart="305.00" from="382242607#0" to="206376286#2"/>
    <trip id="306" depart="306.00" from="-161716025#1" to="399241934#1"/>
    <trip id="307" depart="307.00" from="-399296442#1" to="438257924#1"/>
    <trip id="308" depart="308.00" from="66668865" to="-13286058#1"/>
    <trip id="309" depart="309.00" from="326489607#0" to="-381243040#0"/>
    <trip id="310" depart="310.00" from="381196468#0" to="186070725#0"/>
    <trip id="311" depart="311.00" from="382242304#1" to="-323126706#4"/>
    <trip id="312" depart="312.00" from="-46418598#0" to="161714128#2"/>
    <trip id="313" depart="313.00" from="161688464#1" to="404995538#2"/>
    <trip id="314" depart="314.00" from="165520589" to="-381243041#1"/>
    <trip id="315" depart="315.00" from="-399297110" to="381243043#4"/>
    <trip id="316" depart="316.00" from="-399283652" to="399294721"/>
    <trip id="317" depart="317.00" from="456584005#1" to="234668494#1"/>
    <trip id="318" depart="318.00" from="165521628#3" to="161716060#3"/>
    <trip id="319" depart="319.00" from="-47805886#4" to="161688768#1"/>
    <trip id="320" depart="320.00" from="399311988#1" to="399296450"/>
    <trip id="321" depart="321.00" from="13318047#11" to="186070738#1"/>
    <trip id="322" depart="322.00" from="-521802279#14" to="161890059#0"/>
    <trip id="323" depart="323.00" from="399307899#0" to="-399296454"/>
    <trip id="324" depart="324.00" from="237022761#12" to="-399241924#6"/>
    <trip id="325" depart="325.00" from="-399241924#3" to="438258030#1"/>
    <trip id="326" depart="326.00" from="-438274650#0" to="381243038#12"/>
    <trip id="327" depart="327.00" from="404989116#1" to="-399311983"/>
    <trip id="328" depart="328.00" from="206372071#3" to="-381243038#13"/>
    <trip id="329" depart="329.00" from="234665444#1" to="186076381#12"/>
    <trip id="330" depart="330.00" from="-382492648#1" to="399296440"/>
    <trip id="331" depart="331.00" from="323126706#5" to="161688172#1"/>
    <trip id="332" depart="332.00" from="-399241942#1" to="381187778#0"/>
    <trip id="333" depart="333.00" from="161689967#4" to="-381189087#0"/>
    <trip id="334" depart="334.00" from="-294585476#1" to="398735952#0"/>
    <trip id="335" depart="335.00" from="524575358" to="405164498#0"/>
    <trip id="336" depart="336.00" from="-186070704#7" to="382219815#1"/>
    <trip id="337" depart="337.00" from="399238817" to="-380944788"/>
    <trip id="338" depart="338.00" from="-382440774#1" to="-399294713"/>
    <trip id="339" depart="339.00" from="399238814#1" to="381246291#1"/>
    <trip id="340" depart="340.00" from="-438255394#1" to="-517750442"/>
    <trip id="341" depart="341.00" from="-13403853" to="161687301#2"/>
    <trip id="342" depart="342.00" from="523623581#4" to="381189087#2"/>
    <trip id="343" depart="343.00" from="404989112" to="-399296458#1"/>
    <trip id="344" depart="344.00" from="161688464#13" to="381243043#0"/>
    <trip id="345" depart="345.00" from="167413476#6" to="399307899#0"/>
    <trip id="346" depart="346.00" from="-437906536#3" to="-399179069#0"/>
    <trip id="347" depart="347.00" from="167413478#4" to="-381243043#0"/>
    <trip id="348" depart="348.00" from="-382460879#1" to="185948949#0"/>
    <trip id="349" depart="349.00" from="399270702#1" to="-382238485#1"/>
    <trip id="350" depart="350.00" from="185747931" to="-381246821#0"/>
    <trip id="351" depart="351.00" from="-161510170#1" to="399247037"/>
    <trip id="352" depart="352.00" from="437912349#0" to="-294585476#2"/>
    <trip id="353" depart="353.00" from="161841079" to="-399296438"/>
    <trip id="354" depart="354.00" from="185747928#0" to="66668847"/>
    <trip id="355" depart="355.00" from="524575359#0" to="186070731#6"/>
    <trip id="356" depart="356.00" from="47805886#2" to="399294716#1"/>
    <trip id="357" depart="357.00" from="24849282" to="326489607#0"/>
    <trip id="358" depart="358.00" from="-161510170#0" to="381451677#1"/>
    <trip id="359" depart="359.00" from="405162739#0" to="165518736"/>
    <trip id="360" depart="360.00" from="121934301#9" to="381204957#0"/>
    <trip id="361" depart="361.00" from="185948958" to="-438274649#1"/>
    <trip id="362" depart="362.00" from="45536814#2" to="-161689804#3"/>
    <trip id="363" depart="363.00" from="24849419" to="-521802279#14"/>
    <trip id="364" depart="364.00" from="161890065#4" to="399241930#0"/>
    <trip id="365" depart="365.00" from="438256776#0" to="399296456#1"/>
    <trip id="366" depart="366.00" from="356674388#1" to="167413478#2"/>
    <trip id="367" depart="367.00" from="381243040#1" to="-399241924#3"/>
    <trip id="368" depart="368.00" from="13318047#12" to="186076381#11"/>
    <trip id="369" depart="369.00" from="-437906536#3" to="398735944"/>
    <trip id="370" depart="370.00" from="206372064#5" to="165521628#3"/>
    <trip id="371" depart="371.00" from="-521802279#14" to="-399238816#2"/>
    <trip id="372" depart="372.00" from="-381243038#13" to="-167700743#0"/>
    <trip id="373" depart="373.00" from="-294585476#1" to="-47805886#0"/>
    <trip id="374" depart="374.00" from="381246821#1" to="-399241934#3"/>
    <trip id="375" depart="375.00" from="13350354#0" to="161716048#0"/>
    <trip id="376" depart="376.00" from="381243038#9" to="148252674#1"/>
    <trip id="377" depart="377.00" from="399311989#4" to="-399241928#0"/>
    <trip id="378" depart="378.00" from="399294716#0" to="161688464#15"/>
    <trip id="379" depart="379.00" from="161688462#3" to="-161688173#0"/>
    <trip id="380" depart="380.00" from="237022765#1" to="119889077"/>
    <trip id="381" depart="381.00" from="161716060#5" to="-381188583#0"/>
    <trip id="382" depart="382.00" from="161688767#2" to="-46418442#0"/>
    <trip id="383" depart="383.00" from="-399294705#0" to="333368331#0"/>
    <trip id="384" depart="384.00" from="-398815739#1" to="381185307"/>
    <trip id="385" depart="385.00" from="399270700#1" to="404989116#0"/>
    <trip id="386" depart="386.00" from="381185308" to="381243038#3"/>
    <trip id="387" depart="387.00" from="100930395#7" to="-399241942#0"/>
    <trip id="388" depart="388.00" from="381451677#0" to="-185747931"/>
    <trip id="389" depart="389.00" from="-521802279#12" to="-326489607#0"/>
    <trip id="390" depart="390.00" from="-399238816#2" to="47805886#5"/>
    <trip id="391" depart="391.00" from="-437906536#6" to="-381189087#0"/>
    <trip id="392" depart="392.00" from="399305998#0" to="185747898#0"/>
    <trip id="393" depart="393.00" from="-405164499#1" to="381239984"/>
    <trip id="394" depart="394.00" from="-405164499#0" to="-381189083#1"/>
    <trip id="395" depart="395.00" from="521802279#11" to="13419452#3"/>
    <trip id="396" depart="396.00" from="237022765#0" to="382460880#0"/>
    <trip id="397" depart="397.00" from="161890062#5" to="161688462#7"/>
    <trip id="398" depart="398.00" from="-399241924#7" to="186070705"/>
    <trip id="399" depart="399.00" from="66668856" to="206354180#7"/>
    <trip id="400" depart="400.00" from="399241938" to="399311981#0"/>
    <trip id="401" depart="401.00" from="404995539" to="186070704#6"/>
    <trip id="402" depart="402.00" from="165521626#0" to="161689824#1"/>
    <trip id="403" depart="403.00" from="186076403#1" to="405162747#1"/>
    <trip id="404" depart="404.00" from="399296448#0" to="48331373#1"/>
    <trip id="405" depart="405.00" from="186070725#2" to="-381243038#3"/>
    <trip id="406" depart="406.00" from="172996350#0" to="-45536814#6"/>
    <trip id="407" depart="407.00" from="-121934301#8" to="-237022761#4"/>
    <trip id="408" depart="408.00" from="165521626#0" to="399241938"/>
    <trip id="409" depart="409.00" from="145077580#0" to="-186070704#0"/>